units(length='cm', time='s', quantity='mol', act_energy='kcal/mol')

ideal_gas(name='gas',
          elements="H D T C Ci O Oi N Ne Ar He Si S F Cl Br I X",
          species="""Ar          He          Ne          N2
                     EDC(1)      C2H4Cl(2)   CL(3)       C2H3CL(4)
                     C2H3(5)     CH2CL2(6)   CH2CL(7)    CHCL3(8)
                     CHCL2(9)    CCL4(10)    CCL3(11)    CH3CL(12)
                     CH3(13)     S(14)       C4H6CL(15)  C4H5Cl(16)
                     C4H5S(17)   C4H5Cl(18)  C4H5U(19)   C2H5CL(20)
                     C2H5(21)    S(22)       S(23)       HCL(24)
                     CH4(25)     CH2CCL(26)  CHCLCH(27)  S(28)
                     C2H4(29)    C4H4CL(30)  S(31)       C4H6(32)
                     C2H4Cl(33)  C2HCl2(34)  S(35)       C2H6(36)
                     CL2(37)     H(38)       C2HCL3(39)  S(40)
                     S(41)       C2H2(42)    C2HCL(43)   C2CL2(44)
                     S(45)       S(46)       C4H4(47)""",
          reactions='all',
          transport='Mix',
          initial_state=state(temperature=300.0, pressure=OneAtm))

#-------------------------------------------------------------------------------
# Element data
#-------------------------------------------------------------------------------

element(symbol='Ci', atomic_mass=13.003)
element(symbol='D', atomic_mass=2.014)
element(symbol='Oi', atomic_mass=18.0)
element(symbol='T', atomic_mass=3.016)
element(symbol='X', atomic_mass=195.083)
#-------------------------------------------------------------------------------
# Species data
#-------------------------------------------------------------------------------

species(name='Ar',
        atoms='Ar:1',
        thermo=(NASA([200.00, 1000.00],
                     [ 2.50000000E+00,  0.00000000E+00,  0.00000000E+00,
                       0.00000000E+00,  0.00000000E+00, -7.45375000E+02,
                       4.37967000E+00]),
                NASA([1000.00, 6000.00],
                     [ 2.50000000E+00,  0.00000000E+00,  0.00000000E+00,
                       0.00000000E+00,  0.00000000E+00, -7.45375000E+02,
                       4.37967000E+00])),
        transport=gas_transport(geom='atom',
                                diam=3.33,
                                well_depth=136.501))

species(name='He',
        atoms='He:1',
        thermo=(NASA([200.00, 1000.00],
                     [ 2.50000000E+00,  0.00000000E+00,  0.00000000E+00,
                       0.00000000E+00,  0.00000000E+00, -7.45375000E+02,
                       9.28724000E-01]),
                NASA([1000.00, 6000.00],
                     [ 2.50000000E+00,  0.00000000E+00,  0.00000000E+00,
                       0.00000000E+00,  0.00000000E+00, -7.45375000E+02,
                       9.28724000E-01])),
        transport=gas_transport(geom='atom',
                                diam=2.576,
                                well_depth=10.2))

species(name='Ne',
        atoms='Ne:1',
        thermo=(NASA([200.00, 1000.00],
                     [ 2.50000000E+00,  0.00000000E+00,  0.00000000E+00,
                       0.00000000E+00,  0.00000000E+00, -7.45375000E+02,
                       3.35532000E+00]),
                NASA([1000.00, 6000.00],
                     [ 2.50000000E+00,  0.00000000E+00,  0.00000000E+00,
                       0.00000000E+00,  0.00000000E+00, -7.45375000E+02,
                       3.35532000E+00])),
        transport=gas_transport(geom='atom',
                                diam=3.758,
                                well_depth=148.6))

species(name='N2',
        atoms='N:2',
        thermo=(NASA([200.00, 1000.00],
                     [ 3.53101000E+00, -1.23661000E-04, -5.02999000E-07,
                       2.43531000E-09, -1.40881000E-12, -1.04698000E+03,
                       2.96747000E+00]),
                NASA([1000.00, 6000.00],
                     [ 2.95258000E+00,  1.39690000E-03, -4.92632000E-07,
                       7.86010000E-11, -4.60755000E-15, -9.23949000E+02,
                       5.87189000E+00])),
        transport=gas_transport(geom='linear',
                                diam=3.621,
                                well_depth=97.53,
                                polar=1.76,
                                rot_relax=4.0))

species(name='EDC(1)',
        atoms='C:2 Cl:2 H:4',
        thermo=(NASA([10.00, 355.37],
                     [ 3.91255000E+00,  6.98049000E-03,  1.07676000E-04,
                      -3.14930000E-07,  2.86291000E-10, -1.77723000E+04,
                       9.42648000E+00]),
                NASA([355.37, 3000.00],
                     [ 3.28614000E+00,  2.51423000E-02, -1.58839000E-05,
                       4.85063000E-09, -5.70474000E-13, -1.77979000E+04,
                       1.08134000E+01])),
        transport=gas_transport(geom='nonlinear',
                                diam=4.687,
                                well_depth=531.4))

species(name='C2H4Cl(2)',
        atoms='C:2 Cl:1 H:4',
        thermo=(NASA([10.00, 413.12],
                     [ 3.94514000E+00,  3.91709000E-03,  7.71873000E-05,
                      -1.96009000E-07,  1.54930000E-10,  9.72413000E+03,
                       8.91122000E+00]),
                NASA([413.12, 3000.00],
                     [ 3.48105000E+00,  1.82353000E-02, -1.04728000E-05,
                       3.01539000E-09, -3.43521000E-13,  9.67863000E+03,
                       9.72517000E+00])),
        transport=gas_transport(geom='nonlinear',
                                diam=5.118,
                                well_depth=237.1))

species(name='CL(3)',
        atoms='Cl:1',
        thermo=(NASA([200.00, 1000.00],
                     [ 2.26062000E+00,  1.54154000E-03, -6.80284000E-07,
                      -1.59973000E-09,  1.15417000E-12,  1.38553000E+04,
                       6.57021000E+00]),
                NASA([1000.00, 6000.00],
                     [ 2.94658000E+00, -3.85985000E-04,  1.36139000E-07,
                      -2.17033000E-11,  1.28751000E-15,  1.36970000E+04,
                       3.11330000E+00])),
        transport=gas_transport(geom='atom',
                                diam=3.613,
                                well_depth=130.8,
                                rot_relax=1.0))

species(name='C2H3CL(4)',
        atoms='C:2 Cl:1 H:3',
        thermo=(NASA([10.00, 542.85],
                     [ 4.07717000E+00, -7.12033000E-03,  8.81570000E-05,
                      -1.54161000E-07,  8.84765000E-11,  1.22683000E+03,
                       7.86424000E+00]),
                NASA([542.85, 3000.00],
                     [ 2.03370000E+00,  1.83873000E-02, -1.12017000E-05,
                       3.32144000E-09, -3.80635000E-13,  1.29471000E+03,
                       1.50561000E+01])),
        transport=gas_transport(geom='nonlinear',
                                diam=5.118,
                                well_depth=237.1))

species(name='C2H3(5)',
        atoms='C:2 H:3',
        thermo=(NASA([100.00, 933.65],
                     [ 3.83073344E+00, -1.47669274E-03,  3.09017632E-05,
                      -3.80497112E-08,  1.43180307E-11,  3.45242384E+04,
                       5.61936752E+00]),
                NASA([933.65, 5000.00],
                     [ 5.36075544E+00,  5.27362291E-03, -1.31970147E-06,
                       2.21588579E-10, -1.68788627E-14,  3.36586261E+04,
                      -4.76268457E+00])),
        transport=gas_transport(geom='nonlinear',
                                diam=4.1,
                                well_depth=209.001,
                                rot_relax=1.0))

species(name='CH2CL2(6)',
        atoms='C:1 Cl:2 H:2',
        thermo=(NASA([10.00, 550.53],
                     [ 3.98196000E+00,  1.04838000E-03,  3.79516000E-05,
                      -6.64824000E-08,  3.64924000E-11, -1.26476000E+04,
                       8.34609000E+00]),
                NASA([550.53, 3000.00],
                     [ 2.51796000E+00,  1.51800000E-02, -1.00739000E-05,
                       3.20457000E-09, -3.89005000E-13, -1.25393000E+04,
                       1.40542000E+01])),
        transport=gas_transport(geom='nonlinear',
                                diam=5.118,
                                well_depth=237.1))

species(name='CH2CL(7)',
        atoms='C:1 Cl:1 H:2',
        thermo=(NASA([10.00, 449.62],
                     [ 3.86219000E+00,  1.42634000E-02, -5.74050000E-05,
                       1.24395000E-07, -9.29955000E-11,  1.22486000E+04,
                       6.84207000E+00]),
                NASA([449.62, 3000.00],
                     [ 3.70085000E+00,  6.89427000E-03, -3.44780000E-06,
                       8.39322000E-10, -7.99379000E-14,  1.23521000E+04,
                       8.48115000E+00])),
        transport=gas_transport(geom='nonlinear',
                                diam=4.443,
                                well_depth=110.7))

species(name='CHCL3(8)',
        atoms='C:1 Cl:3 H:1',
        thermo=(NASA([10.00, 501.86],
                     [ 3.91005000E+00,  5.82391000E-03,  6.47481000E-05,
                      -1.65754000E-07,  1.18837000E-10, -1.38832000E+04,
                       9.95099000E+00]),
                NASA([501.86, 3000.00],
                     [ 5.24941000E+00,  1.28889000E-02, -9.39195000E-06,
                       3.16968000E-09, -3.99731000E-13, -1.42410000E+04,
                       2.18699000E+00])),
        transport=gas_transport(geom='nonlinear',
                                diam=4.687,
                                well_depth=531.4))

species(name='CHCL2(9)',
        atoms='C:1 Cl:2 H:1',
        thermo=(NASA([10.00, 567.00],
                     [ 3.95837000E+00,  2.47158000E-03,  3.55196000E-05,
                      -7.65764000E-08,  4.74581000E-11,  9.07565000E+03,
                       9.50715000E+00]),
                NASA([567.00, 3000.00],
                     [ 4.41086000E+00,  8.77734000E-03, -6.28956000E-06,
                       2.12659000E-09, -2.70363000E-13,  8.87167000E+03,
                       6.23456000E+00])),
        transport=gas_transport(geom='nonlinear',
                                diam=5.118,
                                well_depth=237.1))

species(name='CCL4(10)',
        atoms='C:1 Cl:4',
        thermo=(NASA([10.00, 450.24],
                     [ 3.79581000E+00,  1.43838000E-02,  9.47460000E-05,
                      -3.21927000E-07,  2.75344000E-10, -1.39988000E+04,
                       9.50938000E+00]),
                NASA([450.24, 3000.00],
                     [ 8.10227000E+00,  1.08611000E-02, -9.24588000E-06,
                       3.41341000E-09, -4.55427000E-13, -1.47387000E+04,
                      -1.17402000E+01])),
        transport=gas_transport(geom='nonlinear',
                                diam=5.784,
                                well_depth=341.1))

species(name='CCL3(11)',
        atoms='C:1 Cl:3',
        thermo=(NASA([10.00, 474.92],
                     [ 3.88786000E+00,  7.60386000E-03,  5.87506000E-05,
                      -1.79361000E-07,  1.42720000E-10,  6.41872000E+03,
                       1.05664000E+01]),
                NASA([474.92, 3000.00],
                     [ 6.24618000E+00,  8.02903000E-03, -6.67000000E-06,
                       2.42071000E-09, -3.18995000E-13,  5.96591000E+03,
                      -1.46395000E+00])),
        transport=gas_transport(geom='nonlinear',
                                diam=4.687,
                                well_depth=531.4))

species(name='CH3CL(12)',
        atoms='C:1 Cl:1 H:3',
        thermo=(NASA([10.00, 740.83],
                     [ 4.06993000E+00, -4.79947000E-03,  3.79157000E-05,
                      -4.59844000E-08,  1.84177000E-11, -1.10662000E+04,
                       5.10056000E+00]),
                NASA([740.83, 3000.00],
                     [ 1.42627000E+00,  1.34735000E-02, -7.17954000E-06,
                       1.88274000E-09, -1.94328000E-13, -1.07842000E+04,
                       1.63210000E+01])),
        transport=gas_transport(geom='nonlinear',
                                diam=4.443,
                                well_depth=110.7))

species(name='CH3(13)',
        atoms='C:1 H:3',
        thermo=(NASA([100.00, 660.43],
                     [ 3.94800587E+00,  8.27587030E-04,  8.34936525E-06,
                      -9.82641491E-09,  3.80107349E-12,  1.64253714E+04,
                       3.36651483E-01]),
                NASA([660.43, 5000.00],
                     [ 3.22169608E+00,  5.22645958E-03, -1.64124763E-06,
                       2.58224264E-10, -1.62579106E-14,  1.65213098E+04,
                       3.53937940E+00])),
        transport=gas_transport(geom='nonlinear',
                                diam=3.8,
                                well_depth=144.001))

species(name='S(14)',
        atoms='C:4 Cl:2 H:6',
        thermo=(NASA([10.00, 799.23],
                     [ 3.45286000E+00,  4.66729000E-02, -4.11189000E-05,
                       2.24641000E-08, -5.77168000E-12, -9.55169000E+03,
                       1.22684000E+01]),
                NASA([799.23, 3000.00],
                     [ 5.52527000E+00,  3.63008000E-02, -2.16524000E-05,
                       6.22630000E-09, -6.92454000E-13, -9.88296000E+03,
                       2.73465000E+00])),
        transport=gas_transport(geom='nonlinear',
                                diam=5.949,
                                well_depth=399.3))

species(name='C4H6CL(15)',
        atoms='C:4 Cl:1 H:6',
        thermo=(NASA([10.00, 958.97],
                     [ 3.68624000E+00,  2.81641000E-02, -2.63184000E-06,
                      -1.26165000E-08,  5.90325000E-12,  1.68737000E+04,
                       1.22596000E+01]),
                NASA([958.97, 3000.00],
                     [ 4.91230000E+00,  2.99165000E-02, -1.61134000E-05,
                       4.22232000E-09, -4.33079000E-13,  1.63228000E+04,
                       4.74969000E+00])),
        transport=gas_transport(geom='nonlinear',
                                diam=5.784,
                                well_depth=341.1))

species(name='C4H5Cl(16)',
        atoms='C:4 Cl:1 H:5',
        thermo=(NASA([10.00, 586.86],
                     [ 3.91288000E+00,  4.97763000E-03,  1.11789000E-04,
                      -2.08002000E-07,  1.16546000E-10,  7.64665000E+03,
                       1.03556000E+01]),
                NASA([586.86, 3000.00],
                     [ 1.96407000E+00,  3.87131000E-02, -2.67149000E-05,
                       8.72267000E-09, -1.07599000E-12,  7.52319000E+03,
                       1.57182000E+01])),
        transport=gas_transport(geom='nonlinear',
                                diam=5.784,
                                well_depth=341.1))

species(name='C4H5S(17)',
        atoms='C:4 H:5',
        thermo=(NASA([100.00, 937.72],
                     [ 2.64255680E+00,  1.63336729E-02,  3.86225808E-05,
                      -6.71377751E-08,  2.83603365E-11,  4.17296363E+04,
                       1.32820137E+01]),
                NASA([937.72, 5000.00],
                     [ 1.29704658E+01,  6.69127727E-03, -1.00070978E-06,
                       1.67603018E-10, -1.71437640E-14,  3.82796877E+04,
                      -4.39475240E+01])),
        transport=gas_transport(geom='nonlinear',
                                diam=5.18,
                                well_depth=357.002,
                                rot_relax=1.0))

species(name='C4H5Cl(18)',
        atoms='C:4 Cl:1 H:5',
        thermo=(NASA([10.00, 575.53],
                     [ 3.88762000E+00,  6.55641000E-03,  1.18454000E-04,
                      -2.36083000E-07,  1.39323000E-10,  7.21878000E+03,
                       1.01685000E+01]),
                NASA([575.53, 3000.00],
                     [ 3.57339000E+00,  3.49393000E-02, -2.38022000E-05,
                       7.79616000E-09, -9.71306000E-13,  6.82105000E+03,
                       7.74125000E+00])),
        transport=gas_transport(geom='nonlinear',
                                diam=5.784,
                                well_depth=341.1))

species(name='C4H5U(19)',
        atoms='C:4 H:5',
        thermo=(NASA([100.00, 966.65],
                     [ 2.67736458E+00,  2.17332524E-02,  1.03871540E-05,
                      -2.87123216E-08,  1.25380378E-11,  3.65470533E+04,
                       1.30516175E+01]),
                NASA([966.65, 5000.00],
                     [ 8.97810655E+00,  1.35586799E-02, -4.70088094E-06,
                       8.47362554E-10, -6.05067677E-14,  3.44927244E+04,
                      -2.14573741E+01])),
        transport=gas_transport(geom='nonlinear',
                                diam=5.18,
                                well_depth=357.002,
                                rot_relax=1.0))

species(name='C2H5CL(20)',
        atoms='C:2 Cl:1 H:5',
        thermo=(NASA([10.00, 484.30],
                     [ 3.97391000E+00,  1.49727000E-03,  6.00407000E-05,
                      -9.89218000E-08,  5.27772000E-11, -1.48958000E+04,
                       8.16871000E+00]),
                NASA([484.30, 3000.00],
                     [ 1.03942000E+00,  2.57249000E-02, -1.49693000E-05,
                       4.29400000E-09, -4.83116000E-13, -1.46114000E+04,
                       2.01994000E+01])),
        transport=gas_transport(geom='nonlinear',
                                diam=5.118,
                                well_depth=237.1))

species(name='C2H5(21)',
        atoms='C:2 H:5',
        thermo=(NASA([100.00, 967.57],
                     [ 3.69273383E+00,  1.87303665E-03,  3.11940536E-05,
                      -3.71198228E-08,  1.32020993E-11,  1.31683453E+04,
                       7.07163142E+00]),
                NASA([967.57, 5000.00],
                     [ 4.21417407E+00,  1.22656867E-02, -4.37059741E-06,
                       7.87967951E-10, -5.56023726E-14,  1.24800526E+04,
                       1.53781662E+00])),
        transport=gas_transport(geom='nonlinear',
                                diam=4.302,
                                well_depth=252.301,
                                rot_relax=1.5))

species(name='S(22)',
        atoms='C:2 Cl:3 H:3',
        thermo=(NASA([10.00, 439.36],
                     [ 3.80131000E+00,  1.59196000E-02,  7.78841000E-05,
                      -2.30640000E-07,  1.85386000E-10, -1.99564000E+04,
                       1.26451000E+01]),
                NASA([439.36, 3000.00],
                     [ 4.54255000E+00,  2.66420000E-02, -1.83698000E-05,
                       5.91876000E-09, -7.18970000E-13, -2.01901000E+04,
                       7.75972000E+00])),
        transport=gas_transport(geom='nonlinear',
                                diam=5.784,
                                well_depth=341.1))

species(name='S(23)',
        atoms='C:2 Cl:2 H:3',
        thermo=(NASA([10.00, 449.06],
                     [ 3.89110000E+00,  7.54834000E-03,  9.18373000E-05,
                      -2.47347000E-07,  1.92967000E-10,  4.68199000E+03,
                       1.19428000E+01]),
                NASA([449.06, 3000.00],
                     [ 4.72827000E+00,  1.94737000E-02, -1.27406000E-05,
                       4.02520000E-09, -4.87259000E-13,  4.41138000E+03,
                       6.39818000E+00])),
        transport=gas_transport(geom='nonlinear',
                                diam=4.687,
                                well_depth=531.4))

species(name='HCL(24)',
        atoms='Cl:1 H:1',
        thermo=(NASA([200.00, 1000.00],
                     [ 3.46376000E+00,  4.76484000E-04, -2.00301000E-06,
                       3.31714000E-09, -1.44958000E-12, -1.21444000E+04,
                       2.66428000E+00]),
                NASA([1000.00, 6000.00],
                     [ 2.75758000E+00,  1.45387000E-03, -4.79647000E-07,
                       7.77909000E-11, -4.79574000E-15, -1.19138000E+04,
                       6.52197000E+00])),
        transport=gas_transport(geom='linear',
                                diam=3.339,
                                well_depth=344.7,
                                rot_relax=1.0))

species(name='CH4(25)',
        atoms='C:1 H:4',
        thermo=(NASA([100.00, 1084.12],
                     [ 4.20541323E+00, -5.35555051E-03,  2.51122487E-05,
                      -2.13761884E-08,  5.97520096E-12, -1.01619432E+04,
                      -9.21272050E-01]),
                NASA([1084.12, 5000.00],
                     [ 9.08277288E-01,  1.14540668E-02, -4.57172753E-06,
                       8.29189175E-10, -5.66312850E-14, -9.71997950E+03,
                       1.39930289E+01])),
        transport=gas_transport(geom='nonlinear',
                                diam=3.746,
                                well_depth=141.4,
                                polar=2.6,
                                rot_relax=13.0))

species(name='CH2CCL(26)',
        atoms='C:2 Cl:1 H:2',
        thermo=(NASA([10.00, 566.80],
                     [ 3.97471000E+00,  1.46655000E-03,  3.90493000E-05,
                      -7.14232000E-08,  4.02140000E-11,  2.92820000E+04,
                       7.93828000E+00]),
                NASA([566.80, 3000.00],
                     [ 3.00583000E+00,  1.39809000E-02, -9.09222000E-06,
                       2.87036000E-09, -3.48342000E-13,  2.93006000E+04,
                       1.12581000E+01])),
        transport=gas_transport(geom='nonlinear',
                                diam=5.118,
                                well_depth=237.1))

species(name='CHCLCH(27)',
        atoms='C:2 Cl:1 H:2',
        thermo=(NASA([10.00, 597.15],
                     [ 3.96830000E+00,  1.79186000E-03,  4.02358000E-05,
                      -7.36725000E-08,  4.06621000E-11,  3.11964000E+04,
                       8.11847000E+00]),
                NASA([597.15, 3000.00],
                     [ 3.27994000E+00,  1.39907000E-02, -9.46702000E-06,
                       3.09555000E-09, -3.85868000E-13,  3.11433000E+04,
                       9.95173000E+00])),
        transport=gas_transport(geom='nonlinear',
                                diam=5.118,
                                well_depth=237.1))

species(name='S(28)',
        atoms='C:2 Cl:3 H:2',
        thermo=(NASA([10.00, 390.14],
                     [ 3.75368000E+00,  2.00586000E-02,  8.20044000E-05,
                      -3.25015000E-07,  3.16506000E-10,  2.47531000E+03,
                       1.34949000E+01]),
                NASA([390.14, 3000.00],
                     [ 6.20524000E+00,  2.00384000E-02, -1.44795000E-05,
                       4.85947000E-09, -6.09716000E-13,  2.09288000E+03,
                       1.52549000E+00])),
        transport=gas_transport(geom='nonlinear',
                                diam=5.784,
                                well_depth=341.1))

species(name='C2H4(29)',
        atoms='C:2 H:4',
        thermo=(NASA([100.00, 945.99],
                     [ 3.98881513E+00, -6.74780447E-03,  5.04422969E-05,
                      -5.70778446E-08,  2.04960307E-11,  5.04704515E+03,
                       3.80474425E+00]),
                NASA([945.99, 5000.00],
                     [ 4.59004274E+00,  8.72753786E-03, -2.66511381E-06,
                       4.81753523E-10, -3.60726250E-14,  4.12709302E+03,
                      -3.32357803E+00])),
        transport=gas_transport(geom='nonlinear',
                                diam=3.971,
                                well_depth=280.801,
                                rot_relax=1.5))

species(name='C4H4CL(30)',
        atoms='C:4 Cl:1 H:4',
        thermo=(NASA([10.00, 543.36],
                     [ 3.88689000E+00,  6.86882000E-03,  1.12245000E-04,
                      -2.40384000E-07,  1.51616000E-10,  3.64127000E+04,
                       1.10224000E+01]),
                NASA([543.36, 3000.00],
                     [ 4.12767000E+00,  2.99918000E-02, -2.03150000E-05,
                       6.58244000E-09, -8.11092000E-13,  3.60190000E+04,
                       6.62587000E+00])),
        transport=gas_transport(geom='nonlinear',
                                diam=5.784,
                                well_depth=341.1))

species(name='S(31)',
        atoms='C:4 Cl:2 H:5',
        thermo=(NASA([10.00, 354.30],
                     [ 3.76248000E+00,  2.00768000E-02,  1.47962000E-04,
                      -4.99836000E-07,  4.85831000E-10,  5.87423000E+03,
                       1.35117000E+01]),
                NASA([354.30, 3000.00],
                     [ 4.19262000E+00,  3.80847000E-02, -2.50755000E-05,
                       7.89546000E-09, -9.49339000E-13,  5.70025000E+03,
                       9.85771000E+00])),
        transport=gas_transport(geom='nonlinear',
                                diam=5.949,
                                well_depth=399.3))

species(name='C4H6(32)',
        atoms='C:4 H:6',
        thermo=(NASA([100.00, 946.05],
                     [ 2.80600143E+00,  1.02583447E-02,  6.17264026E-05,
                      -9.01647842E-08,  3.59119275E-11,  1.16584968E+04,
                       1.20621138E+01]),
                NASA([946.05, 5000.00],
                     [ 1.24693449E+01,  1.00554370E-02, -2.41209610E-06,
                       4.57083829E-10, -3.93166020E-14,  8.01078907E+03,
                      -4.36373200E+01])),
        transport=gas_transport(geom='nonlinear',
                                diam=5.18,
                                well_depth=357.002,
                                rot_relax=1.0))

species(name='C2H4Cl(33)',
        atoms='C:2 Cl:1 H:4',
        thermo=(NASA([10.00, 473.11],
                     [ 3.88071000E+00,  9.57244000E-03,  2.18506000E-05,
                      -4.34465000E-08,  2.42387000E-11,  7.49906000E+03,
                       8.88665000E+00]),
                NASA([473.11, 3000.00],
                     [ 2.65011000E+00,  1.99769000E-02, -1.11369000E-05,
                       3.03685000E-09, -3.24053000E-13,  7.61550000E+03,
                       1.39026000E+01])),
        transport=gas_transport(geom='nonlinear',
                                diam=5.118,
                                well_depth=237.1))

species(name='C2HCl2(34)',
        atoms='C:2 Cl:2 H:1',
        thermo=(NASA([10.00, 499.53],
                     [ 3.92538000E+00,  4.82990000E-03,  6.00851000E-05,
                      -1.48509000E-07,  1.04971000E-10,  2.69006000E+04,
                       1.10446000E+01]),
                NASA([499.53, 3000.00],
                     [ 4.70884000E+00,  1.32569000E-02, -9.36323000E-06,
                       3.08874000E-09, -3.83092000E-13,  2.66389000E+04,
                       5.97281000E+00])),
        transport=gas_transport(geom='nonlinear',
                                diam=4.687,
                                well_depth=531.4))

species(name='S(35)',
        atoms='C:2 Cl:2 H:2',
        thermo=(NASA([10.00, 560.75],
                     [ 3.94337000E+00,  3.35425000E-03,  6.25373000E-05,
                      -1.26190000E-07,  7.58027000E-11, -1.70863000E+03,
                       9.53327000E+00]),
                NASA([560.75, 3000.00],
                     [ 3.60306000E+00,  1.86300000E-02, -1.26933000E-05,
                       4.10928000E-09, -5.04849000E-13, -1.87247000E+03,
                       9.17704000E+00])),
        transport=gas_transport(geom='nonlinear',
                                diam=4.687,
                                well_depth=531.4))

species(name='C2H6(36)',
        atoms='C:2 H:6',
        thermo=(NASA([100.00, 981.60],
                     [ 3.74672820E+00,  4.52351469E-05,  4.07972118E-05,
                      -4.57425308E-08,  1.56847655E-11, -1.14740722E+04,
                       4.74132320E+00]),
                NASA([981.60, 5000.00],
                     [ 3.34696347E+00,  1.61750129E-02, -6.00966068E-06,
                       1.09622959E-09, -7.72310422E-14, -1.20941968E+04,
                       3.10403711E+00])),
        transport=gas_transport(geom='nonlinear',
                                diam=4.302,
                                well_depth=252.301,
                                rot_relax=1.5))

species(name='CL2(37)',
        atoms='Cl:2',
        thermo=(NASA([200.00, 1000.00],
                     [ 2.73638000E+00,  7.83526000E-03, -1.45105000E-05,
                       1.25731000E-08, -4.13247000E-12, -1.05880000E+03,
                       9.44557000E+00]),
                NASA([1000.00, 6000.00],
                     [ 4.74728000E+00, -4.88582000E-04,  2.68445000E-07,
                      -2.43476000E-11, -1.03683000E-15, -1.51102000E+03,
                      -3.44539000E-01])),
        transport=gas_transport(geom='linear',
                                diam=4.443,
                                well_depth=110.7))

species(name='H(38)',
        atoms='H:1',
        thermo=(NASA([100.00, 4383.16],
                     [ 2.50000000E+00, -2.38914167E-13,  3.12709494E-16,
                      -1.33367320E-19,  1.74989654E-23,  2.54742178E+04,
                      -4.44972897E-01]),
                NASA([4383.16, 5000.00],
                     [ 2.50003447E+00, -3.04996987E-08,  1.01101187E-11,