units(length='cm', time='s', quantity='mol', act_energy='kcal/mol')

ideal_gas(name='gas',
          elements="H D T C Ci O Oi N Ne Ar He Si S F Cl Br I X",
          species="""Ar           He           Ne           N2
                     EDC(1)       R1(2)        R2-2(4)      CCl4(5)
                     R8(6)        HCl(7)       R3(8)        VCM(10)
                     R5-2(11)     EC(12)       R4(13)       1,1(14)
                     R6-1(15)     1,1,2(16)    R7-1(18)     1,1,2,2(21)
                     CHCl3(22)    2-CP(24)     C4H6Cl2(25)  C2H2(26)
                     1,1-Di(27)   Tri(29)      C6H6(30)     C4H6CL(31)
                     CL2(32)      C4H6(33)""",
          reactions='all',
          transport='Mix',
          initial_state=state(temperature=300.0, pressure=OneAtm))

#-------------------------------------------------------------------------------
# Element data
#-------------------------------------------------------------------------------

element(symbol='Ci', atomic_mass=13.003)
element(symbol='D', atomic_mass=2.014)
element(symbol='Oi', atomic_mass=18.0)
element(symbol='T', atomic_mass=3.016)
element(symbol='X', atomic_mass=195.083)

#-------------------------------------------------------------------------------
# Species data
#-------------------------------------------------------------------------------

species(name='Ar',
        atoms='Ar:1',
        transport=gas_transport(geom='atom',
                                diam=3.33,
                                well_depth=136.501))

species(name='He',
        atoms='He:1',
        transport=gas_transport(geom='atom',
                                diam=2.576,
                                well_depth=10.2))

species(name='Ne',
        atoms='Ne:1',
        transport=gas_transport(geom='atom',
                                diam=3.758,
                                well_depth=148.6))

species(name='N2',
        atoms='N:2',
        transport=gas_transport(geom='linear',
                                diam=3.621,
                                well_depth=97.53,
                                polar=1.76,
                                rot_relax=4.0))

species(name='EDC(1)',
        atoms='C:2 Cl:2 H:4',
        transport=gas_transport(geom='nonlinear',
                                diam=4.687,
                                well_depth=531.4))

species(name='R1(2)',
        atoms='Cl:1',
        transport=gas_transport(geom='atom',
                                diam=3.613,
                                well_depth=130.8,
                                rot_relax=1.0))

species(name='R2-2(4)',
        atoms='C:2 Cl:1 H:4',
        transport=gas_transport(geom='nonlinear',
                                diam=5.118,
                                well_depth=237.1))

species(name='CCl4(5)',
        atoms='C:1 Cl:4',
        transport=gas_transport(geom='nonlinear',
                                diam=5.784,
                                well_depth=341.1))

species(name='R8(6)',
        atoms='C:1 Cl:3',
        transport=gas_transport(geom='nonlinear',
                                diam=4.687,
                                well_depth=531.4))

species(name='HCl(7)',
        atoms='Cl:1 H:1',
        transport=gas_transport(geom='linear',
                                diam=3.339,
                                well_depth=344.7,
                                rot_relax=1.0))

species(name='R3(8)',
        atoms='C:2 Cl:2 H:3',
        transport=gas_transport(geom='nonlinear',
                                diam=4.687,
                                well_depth=531.4))

species(name='VCM(10)',
        atoms='C:2 Cl:1 H:3',
        transport=gas_transport(geom='nonlinear',
                                diam=5.118,
                                well_depth=237.1))

species(name='R5-2(11)',
        atoms='C:2 Cl:1 H:2',
        transport=gas_transport(geom='nonlinear',
                                diam=5.118,
                                well_depth=237.1))

species(name='EC(12)',
        atoms='C:2 Cl:1 H:5',
        transport=gas_transport(geom='nonlinear',
                                diam=5.118,
                                well_depth=237.1))

species(name='R4(13)',
        atoms='C:2 Cl:2 H:3',
        transport=gas_transport(geom='nonlinear',
                                diam=4.687,
                                well_depth=531.4))

species(name='1,1(14)',
        atoms='C:2 Cl:2 H:4',
        transport=gas_transport(geom='nonlinear',
                                diam=4.687,
                                well_depth=531.4))

species(name='R6-1(15)',
        atoms='C:2 Cl:3 H:2',
        transport=gas_transport(geom='nonlinear',
                                diam=5.784,
                                well_depth=341.1))

species(name='1,1,2(16)',
        atoms='C:2 Cl:3 H:3',
        transport=gas_transport(geom='nonlinear',
                                diam=5.784,
                                well_depth=341.1))

species(name='R7-1(18)',
        atoms='C:2 Cl:4 H:1',
        transport=gas_transport(geom='nonlinear',
                                diam=5.949,
                                well_depth=399.3))

species(name='1,1,2,2(21)',
        atoms='C:2 Cl:4 H:2',
        transport=gas_transport(geom='nonlinear',
                                diam=5.949,
                                well_depth=399.3))

species(name='CHCl3(22)',
        atoms='C:1 Cl:3 H:1',
        transport=gas_transport(geom='nonlinear',
                                diam=4.687,
                                well_depth=531.4))

species(name='2-CP(24)',
        atoms='C:4 Cl:1 H:5',
        transport=gas_transport(geom='nonlinear',
                                diam=5.784,
                                well_depth=341.1))

species(name='C4H6Cl2(25)',
        atoms='C:4 Cl:2 H:6',
        transport=gas_transport(geom='nonlinear',
                                diam=5.949,
                                well_depth=399.3))

species(name='C2H2(26)',
        atoms='C:2 H:2',
        transport=gas_transport(geom='linear',
                                diam=4.1,
                                well_depth=209.001,
                                rot_relax=2.5))

species(name='1,1-Di(27)',
        atoms='C:2 Cl:2 H:2',
        transport=gas_transport(geom='nonlinear',
                                diam=4.687,
                                well_depth=531.4))

species(name='Tri(29)',
        atoms='C:2 Cl:3 H:1',
        transport=gas_transport(geom='nonlinear',
                                diam=5.784,
                                well_depth=341.1))

species(name='C6H6(30)',
        atoms='C:6 H:6',
        transport=gas_transport(geom='nonlinear',
                                diam=5.913,
                                well_depth=438.897))

species(name='C4H6CL(31)',
        atoms='C:4 Cl:1 H:6',
        transport=gas_transport(geom='nonlinear',
                                diam=5.784,
                                well_depth=341.1))

species(name='CL2(32)',
        atoms='Cl:2',
        transport=gas_transport(geom='linear',
                                diam=4.443,
                                well_depth=110.7))

species(name='C4H6(33)',
        atoms='C:4 H:6',
        transport=gas_transport(geom='nonlinear',
                                diam=5.18,
                                well_depth=357.002,
                                rot_relax=1.0))
#-------------------------------------------------------------------------------
# Reaction data
#-------------------------------------------------------------------------------
#  Reaction index: Chemkin #1; RMG #1
#  Library reaction: 2009_Schirmeister_EDC
#  Flux pairs: EDC(1), R1(2); EDC(1), R2-2(4);

# Reaction 1
reaction('EDC(1) => R1(2) + R2-2(4)', [5.064257e+15, 0.0, 84.10355])
#  Reaction index: Chemkin #2; RMG #2
#  Library reaction: 2009_Schirmeister_EDC
#  Flux pairs: CCl4(5), R1(2); CCl4(5), R8(6);

# Reaction 2
reaction('CCl4(5) => R1(2) + R8(6)', [5.504878e+11, 0.0, 94.02696])
#  Reaction index: Chemkin #3; RMG #3
#  Library reaction: 2009_Schirmeister_EDC
#  Flux pairs: EDC(1), R3(8); R1(2), HCl(7);

# Reaction 3
reaction('R1(2) + EDC(1) => HCl(7) + R3(8)', [3.618386e+12, 0.0, 1.67464])
#  Reaction index: Chemkin #4; RMG #4
#  Library reaction: 2009_Schirmeister_EDC
#  Flux pairs: EDC(1), R3(8); R5-2(11), VCM(10);

# Reaction 4
reaction('R5-2(11) + EDC(1) => VCM(10) + R3(8)', [1.200000e+13, 0.0, 8.25694])
#  Reaction index: Chemkin #5; RMG #5
#  Library reaction: 2009_Schirmeister_EDC
#  Flux pairs: EDC(1), R3(8); R2-2(4), EC(12);

# Reaction 5
reaction('R2-2(4) + EDC(1) => R3(8) + EC(12)', [1.682202e+12, 0.0, 10.04785])
#  Reaction index: Chemkin #6; RMG #6
#  Library reaction: 2009_Schirmeister_EDC
#  Flux pairs: EDC(1), 1,1(14); R4(13), R3(8);

# Reaction 6
reaction('R4(13) + EDC(1) => R3(8) + 1,1(14)', [5.000000e+11, 0.0, 10.76555])
#  Reaction index: Chemkin #7; RMG #7
#  Library reaction: 2009_Schirmeister_EDC
#  Flux pairs: R6-1(15), 1,1,2(16); EDC(1), R3(8);

# Reaction 7
reaction('R6-1(15) + EDC(1) => R3(8) + 1,1,2(16)', [2.000000e+11, 0.0, 11.48325])
#  Reaction index: Chemkin #8; RMG #8
#  Library reaction: 2009_Schirmeister_EDC
#  Flux pairs: R7-1(18), 1,1,2,2(21); EDC(1), R3(8);

# Reaction 8
reaction('R7-1(18) + EDC(1) => 1,1,2,2(21) + R3(8)', [1.000000e+11, 0.0, 13.39713])
#  Reaction index: Chemkin #9; RMG #9
#  Library reaction: 2009_Schirmeister_EDC
#  Flux pairs: EDC(1), R3(8); R8(6), CHCl3(22);

# Reaction 9
reaction('R8(6) + EDC(1) => CHCl3(22) + R3(8)', [9.931347e+11, 0.0, 15.07177])
#  Reaction index: Chemkin #10; RMG #10
#  Library reaction: 2009_Schirmeister_EDC
#  Flux pairs: R1(2), R4(13); VCM(10), R4(13);

# Reaction 10
reaction('R1(2) + VCM(10) => R4(13)', [7.485452e+10, 0.0, 0.0])
#  Reaction index: Chemkin #11; RMG #11
#  Library reaction: 2009_Schirmeister_EDC
#  Flux pairs: VCM(10), R5-2(11); R1(2), HCl(7);

# Reaction 11
reaction('R1(2) + VCM(10) => HCl(7) + R5-2(11)', [1.200000e+14, 0.0, 12.38323])
#  Reaction index: Chemkin #12; RMG #12
#  Library reaction: 2009_Schirmeister_EDC
#  Flux pairs: VCM(10), 2-CP(24); R5-2(11), R1(2);

# Reaction 12
reaction('R5-2(11) + VCM(10) => R1(2) + 2-CP(24)', [5.000000e+11, 0.0, 7.41627])
#  Reaction index: Chemkin #13; RMG #13
#  Library reaction: 2009_Schirmeister_EDC
#  Flux pairs: R4(13), C4H6Cl2(25); VCM(10), R1(2);

# Reaction 13
reaction('VCM(10) + R4(13) => R1(2) + C4H6Cl2(25)', [8.244045e+11, 0.0, 4.56956])
#  Reaction index: Chemkin #14; RMG #14
#  Library reaction: 2009_Schirmeister_EDC
#  Flux pairs: R2-2(4), EC(12); VCM(10), R5-2(11);

# Reaction 14
reaction('VCM(10) + R2-2(4) => R5-2(11) + EC(12)', [3.000000e+11, 0.0, 14.5933])
#  Reaction index: Chemkin #15; RMG #15
#  Library reaction: 2009_Schirmeister_EDC
#  Flux pairs: R3(8), R1(2); R3(8), VCM(10);

# Reaction 15
reaction('R3(8) => R1(2) + VCM(10)', [1.589327e+14, 0.0, 19.18221])
#  Reaction index: Chemkin #16; RMG #16
#  Library reaction: 2009_Schirmeister_EDC
#  Flux pairs: R5-2(11), R1(2); R5-2(11), C2H2(26);

# Reaction 16
reaction('R5-2(11) => R1(2) + C2H2(26)', [4.602750e+11, 0.0, 22.2422])
#  Reaction index: Chemkin #17; RMG #17
#  Library reaction: 2009_Schirmeister_EDC
#  Flux pairs: R6-1(15), R1(2); R6-1(15), 1,1-Di(27);

# Reaction 17
reaction('R6-1(15) => R1(2) + 1,1-Di(27)', [2.000000e+13, 0.0, 16.74641])
#  Reaction index: Chemkin #18; RMG #18
#  Library reaction: 2009_Schirmeister_EDC
#  Flux pairs: R7-1(18), R1(2); R7-1(18), Tri(29);

# Reaction 18
reaction('R7-1(18) => R1(2) + Tri(29)', [2.500000e+13, 0.0, 15.73465])
#  Reaction index: Chemkin #19; RMG #19
#  Library reaction: 2009_Schirmeister_EDC
#  Flux pairs: C2H2(26), C6H6(30); R5-2(11), R1(2);

# Reaction 19
reaction('2 C2H2(26) + R5-2(11) => C6H6(30) + R1(2)', [1.053509e+14, 0.0, 4.78469])
#  Reaction index: Chemkin #20; RMG #20
#  Library reaction: 2009_Schirmeister_EDC
#  Flux pairs: EC(12), R2-2(4); R1(2), HCl(7);

# Reaction 20
reaction('R1(2) + EC(12) => HCl(7) + R2-2(4)', [7.081281e+12, 0.0, 0.95694])
#  Reaction index: Chemkin #21; RMG #21
#  Library reaction: 2009_Schirmeister_EDC
#  Flux pairs: 1,1(14), R4(13); R1(2), HCl(7);

# Reaction 21
reaction('R1(2) + 1,1(14) => HCl(7) + R4(13)', [1.200000e+13, 0.0, 1.43541])
#  Reaction index: Chemkin #22; RMG #22
#  Library reaction: 2009_Schirmeister_EDC
#  Flux pairs: 1,1,2(16), R6-1(15); R1(2), HCl(7);

# Reaction 22
reaction('R1(2) + 1,1,2(16) => HCl(7) + R6-1(15)', [2.264436e+14, 0.0, 3.58852])
#  Reaction index: Chemkin #23; RMG #23
#  Library reaction: 2009_Schirmeister_EDC
#  Flux pairs: 1,1,2,2(21), R7-1(18); R1(2), HCl(7);

# Reaction 23
reaction('R1(2) + 1,1,2,2(21) => HCl(7) + R7-1(18)', [1.700000e+13, 0.0, 4.06699])
#  Reaction index: Chemkin #24; RMG #24
#  Library reaction: 2009_Schirmeister_EDC
#  Flux pairs: CHCl3(22), R8(6); R1(2), HCl(7);

# Reaction 24
reaction('R1(2) + CHCl3(22) => HCl(7) + R8(6)', [1.600000e+13, 0.0, 3.34928])
#  Reaction index: Chemkin #25; RMG #25
#  Library reaction: 2009_Schirmeister_EDC
#  Flux pairs: R5-2(11), 1,1-Di(27); CCl4(5), R8(6);

# Reaction 25
reaction('CCl4(5) + R5-2(11) => R8(6) + 1,1-Di(27)', [5.000000e+11, 0.0, 7.89474])
#  Reaction index: Chemkin #26; RMG #26
#  Library reaction: 2009_Schirmeister_EDC
#  Flux pairs: R4(13), 1,1,2(16); CCl4(5), R8(6);

# Reaction 26
reaction('CCl4(5) + R4(13) => R8(6) + 1,1,2(16)', [3.460607e+11, 0.0, 8.28721])
#  Reaction index: Chemkin #27; RMG #27
#  Library reaction: 2009_Schirmeister_EDC
#  Flux pairs: R6-1(15), 1,1,2,2(21); CCl4(5), R8(6);

# Reaction 27
reaction('CCl4(5) + R6-1(15) => R8(6) + 1,1,2,2(21)', [5.000000e+11, 0.0, 7.89474])
#  Reaction index: Chemkin #28; RMG #28
#  Library reaction: 2009_Schirmeister_EDC
#  Flux pairs: R2-2(4), VCM(10); R1(2), HCl(7);

# Reaction 28
reaction('R1(2) + R2-2(4) => HCl(7) + VCM(10)', [1.000000e+13, 0.0, 2.99379])
#  Reaction index: Chemkin #29; RMG #29
#  Library reaction: 2009_Schirmeister_EDC
#  Flux pairs: R3(8), 1,1-Di(27); R1(2), HCl(7);

# Reaction 29
reaction('R1(2) + R3(8) => HCl(7) + 1,1-Di(27)', [8.992671e+12, 0.0, 2.87081])
#  Reaction index: Chemkin #30; RMG #30
#  Library reaction: 2009_Schirmeister_EDC
#  Flux pairs: R6-1(15), 1,1-Di(27); R8(6), CCl4(5);

# Reaction 30
reaction('R8(6) + R6-1(15) => CCl4(5) + 1,1-Di(27)', [1.000000e+13, 0.0, 3.11005])
#  Reaction index: Chemkin #32; RMG #32
#  Library reaction: 2009_Schirmeister_EDC
#  Flux pairs: R1(2), R3(8) ; VCM(10), R3(8);

# Reaction 31
reaction('R1(2) + VCM(10) => R3(8)', [4.069139e+14, 0.0, 3.6935])
#  Reaction index: Chemkin #33; RMG #33
#  Library reaction: 2009_Schirmeister_EDC
#  Flux pairs: R1(2), R5-2(11) ; C2H2(26), R5-2(11);

# Reaction 32
reaction('R1(2) + C2H2(26) => R5-2(11)', [6.567441e+11, 0.0, 1.10247])
#  Reaction index: Chemkin #34; RMG #34
#  Library reaction: 2009_Schirmeister_EDC
#  Flux pairs: R1(2), R6-1(15) ; 1,1-Di(27), R6-1(15);

# Reaction 33
reaction('R1(2) + 1,1-Di(27) => R6-1(15)', [4.329112e+13, 0.0, 2.2164])
#  Reaction index: Chemkin #35; RMG #35
#  Library reaction: 2009_Schirmeister_EDC
#  Flux pairs: R1(2), R7-1(18) ; Tri(29), R7-1(18);

# Reaction 34
reaction('R1(2) + Tri(29) => R7-1(18)', [3.303444e+13, 0.0, 5.12777])
#  Reaction index: Chemkin #36; RMG #36
#  Library reaction: 2009_Schirmeister_EDC
#  Flux pairs: 1,1,2,2(21), R6-1(15) ; R8(6), CCl4(5);

# Reaction 35
reaction('R8(6) + 1,1,2,2(21) => CCl4(5) + R6-1(15)', [5.574840e+14, 0.0, 11.24402])
#  Reaction index: Chemkin #37; RMG #37
#  Library reaction: 2009_Schirmeister_EDC
#  Flux pairs: C4H6Cl2(25), C4H6CL(31) ; C4H6Cl2(25), R1(2);

# Reaction 36
reaction('C4H6Cl2(25) => C4H6CL(31) + R1(2)', [8.953933e+12, 0.0, 66.6971])
#  Reaction index: Chemkin #38; RMG #38
#  Library reaction: 2009_Schirmeister_EDC
#  Flux pairs: C4H6CL(31), C4H6(33) ; C4H6CL(31), R1(2);

# Reaction 37
reaction('C4H6CL(31) => C4H6(33) + R1(2)', [2.624976e+13, 0.0, 34.46957])
